
     RDKit          3D

 45 46  0  0  0  0  0  0  0  0999 V2000
   -1.4318    2.3280    1.2450 C   0  0  0  0  0  0  0  0  0  0  0  0
   -1.8059    1.3893    0.0833 C   0  0  1  0  0  0  0  0  0  0  0  0
   -1.0522    0.0385    0.0463 C   0  0  2  0  0  0  0  0  0  0  0  0
   -1.5909   -0.9101    1.1292 C   0  0  1  0  0  0  0  0  0  0  0  0
   -3.1105   -1.0393    1.0275 C   0  0  2  0  0  0  0  0  0  0  0  0
   -3.7809    0.3378    1.0043 C   0  0  2  0  0  0  0  0  0  0  0  0
   -3.2326    1.1873    0.0093 O   0  0  0  0  0  0  0  0  0  0  0  0
   -3.6825    0.9271    2.2942 O   0  0  0  0  0  0  0  0  0  0  0  0
   -3.5818   -1.8280    2.1333 O   0  0  0  0  0  0  0  0  0  0  0  0
   -1.0246   -2.2248    0.9604 O   0  0  0  0  0  0  0  0  0  0  0  0
    0.3674    0.1783    0.2160 O   0  0  0  0  0  0  0  0  0  0  0  0
    1.1430    0.2388   -0.9932 C   0  0  1  0  0  0  0  0  0  0  0  0
    2.5536    0.8275   -0.7017 C   0  0  2  0  0  0  0  0  0  0  0  0
    3.3086   -0.0291    0.1730 O   0  0  0  0  0  0  0  0  0  0  0  0
    3.5558   -1.3179   -0.3793 C   0  0  2  0  0  0  0  0  0  0  0  0
    2.2556   -2.0580   -0.7356 C   0  0  2  0  0  0  0  0  0  0  0  0
    1.3887   -1.1568   -1.6266 C   0  0  1  0  0  0  0  0  0  0  0  0
    0.1898   -1.8443   -1.9820 O   0  0  0  0  0  0  0  0  0  0  0  0
    1.6125   -2.4441    0.4906 O   0  0  0  0  0  0  0  0  0  0  0  0
    4.2806   -2.0715    0.5817 O   0  0  0  0  0  0  0  0  0  0  0  0
    2.5378    2.2058   -0.0346 C   0  0  0  0  0  0  0  0  0  0  0  0
    2.0229    2.1370    1.2967 O   0  0  0  0  0  0  0  0  0  0  0  0
   -0.3700    3.1991    0.8730 O   0  0  0  0  0  0  0  0  0  0  0  0
   -2.2792    2.9730    1.4959 H   0  0  0  0  0  0  0  0  0  0  0  0
   -1.1480    1.7875    2.1538 H   0  0  0  0  0  0  0  0  0  0  0  0
   -1.5422    1.9190   -0.8415 H   0  0  0  0  0  0  0  0  0  0  0  0
   -1.2758   -0.4258   -0.9184 H   0  0  0  0  0  0  0  0  0  0  0  0
   -1.2818   -0.5828    2.1280 H   0  0  0  0  0  0  0  0  0  0  0  0
   -3.3592   -1.5882    0.1118 H   0  0  0  0  0  0  0  0  0  0  0  0
   -4.8485    0.2066    0.7960 H   0  0  0  0  0  0  0  0  0  0  0  0
   -4.3644    1.6232    2.3095 H   0  0  0  0  0  0  0  0  0  0  0  0
   -3.6223   -1.2160    2.8968 H   0  0  0  0  0  0  0  0  0  0  0  0
   -1.5143   -2.8016    1.5807 H   0  0  0  0  0  0  0  0  0  0  0  0
    0.6188    0.8883   -1.7044 H   0  0  0  0  0  0  0  0  0  0  0  0
    3.1026    0.9257   -1.6479 H   0  0  0  0  0  0  0  0  0  0  0  0
    4.1941   -1.2026   -1.2633 H   0  0  0  0  0  0  0  0  0  0  0  0
    2.4801   -2.9974   -1.2517 H   0  0  0  0  0  0  0  0  0  0  0  0
    1.9346   -1.0058   -2.5673 H   0  0  0  0  0  0  0  0  0  0  0  0
   -0.2044   -1.3936   -2.7480 H   0  0  0  0  0  0  0  0  0  0  0  0
    0.6390   -2.3694    0.3533 H   0  0  0  0  0  0  0  0  0  0  0  0
    3.5768   -2.4086    1.1744 H   0  0  0  0  0  0  0  0  0  0  0  0
    1.9440    2.9203   -0.6129 H   0  0  0  0  0  0  0  0  0  0  0  0
    3.5592    2.5934    0.0450 H   0  0  0  0  0  0  0  0  0  0  0  0
    2.3737    1.2929    1.6551 H   0  0  0  0  0  0  0  0  0  0  0  0
    0.4644    2.7912    1.2018 H   0  0  0  0  0  0  0  0  0  0  0  0
  1  2  1  0
  2  3  1  0
  3  4  1  0
  4  5  1  0
  5  6  1  0
  6  7  1  0
  6  8  1  0
  5  9  1  0
  4 10  1  0
  3 11  1  0
 11 12  1  0
 12 13  1  0
 13 14  1  0
 14 15  1  0
 15 16  1  0
 16 17  1  0
 17 18  1  0
 16 19  1  0
 15 20  1  0
 13 21  1  0
 21 22  1  0
  1 23  1  0
  7  2  1  0
 17 12  1  0
  1 24  1  0
  1 25  1  0
  2 26  1  6
  3 27  1  6
  4 28  1  1
  5 29  1  6
  6 30  1  6
  8 31  1  0
  9 32  1  0
 10 33  1  0
 12 34  1  6
 13 35  1  6
 15 36  1  6
 16 37  1  6
 17 38  1  6
 18 39  1  0
 19 40  1  0
 20 41  1  0
 21 42  1  0
 21 43  1  0
 22 44  1  0
 23 45  1  0
M  END
$$$$
