
     RDKit          3D

 24 24  0  0  0  0  0  0  0  0999 V2000
   -0.5287    0.4118   -0.7941 C   0  0  0  0  0  0  0  0  0  0  0  0
    0.7871    0.8868   -0.7078 C   0  0  0  0  0  0  0  0  0  0  0  0
    1.7773    0.0927   -0.1323 C   0  0  0  0  0  0  0  0  0  0  0  0
    1.4280   -1.1753    0.3475 C   0  0  0  0  0  0  0  0  0  0  0  0
    0.1254   -1.6559    0.2679 C   0  0  0  0  0  0  0  0  0  0  0  0
   -0.8681   -0.8548   -0.2985 C   0  0  0  0  0  0  0  0  0  0  0  0
   -2.2338   -1.3713   -0.4140 C   0  0  0  0  0  0  0  0  0  0  0  0
   -3.3482   -0.8782    0.1493 C   0  0  0  0  0  0  0  0  0  0  0  0
   -3.5061    0.2631    1.0618 C   0  0  0  0  0  0  0  0  0  0  0  0
   -4.5656    0.8346    1.2538 O   0  0  0  0  0  0  0  0  0  0  0  0
   -2.3978    0.6039    1.7280 O   0  0  0  0  0  0  0  0  0  0  0  0
    2.3804   -1.9820    0.9116 O   0  0  0  0  0  0  0  0  0  0  0  0
    3.0991    0.4251    0.0171 O   0  0  0  0  0  0  0  0  0  0  0  0
    3.4865    1.7131   -0.4477 C   0  0  0  0  0  0  0  0  0  0  0  0
   -1.2890    1.0416   -1.2507 H   0  0  0  0  0  0  0  0  0  0  0  0
    0.9979    1.8754   -1.1005 H   0  0  0  0  0  0  0  0  0  0  0  0
   -0.1034   -2.6448    0.6541 H   0  0  0  0  0  0  0  0  0  0  0  0
   -2.3211   -2.2522   -1.0478 H   0  0  0  0  0  0  0  0  0  0  0  0
   -4.2973   -1.3545   -0.0815 H   0  0  0  0  0  0  0  0  0  0  0  0
   -2.6773    1.3404    2.3074 H   0  0  0  0  0  0  0  0  0  0  0  0
    3.2047   -1.4590    0.8748 H   0  0  0  0  0  0  0  0  0  0  0  0
    2.9604    2.5042    0.0968 H   0  0  0  0  0  0  0  0  0  0  0  0
    3.3329    1.8051   -1.5279 H   0  0  0  0  0  0  0  0  0  0  0  0
    4.5569    1.8301   -0.2527 H   0  0  0  0  0  0  0  0  0  0  0  0
  1  2  2  0
  2  3  1  0
  3  4  2  0
  4  5  1  0
  5  6  2  0
  6  7  1  0
  7  8  2  3
  8  9  1  0
  9 10  2  0
  9 11  1  0
  4 12  1  0
  3 13  1  0
 13 14  1  0
  6  1  1  0
  1 15  1  0
  2 16  1  0
  5 17  1  0
  7 18  1  0
  8 19  1  0
 11 20  1  0
 12 21  1  0
 14 22  1  0
 14 23  1  0
 14 24  1  0
M  END
$$$$
