
     RDKit          3D

 23 23  0  0  0  0  0  0  0  0999 V2000
   -0.7243   -1.3354    0.1316 C   0  0  0  0  0  0  0  0  0  0  0  0
   -1.6264   -0.1529    0.5139 C   0  0  0  0  0  0  0  0  0  0  0  0
   -0.8374    1.1641    0.5275 C   0  0  0  0  0  0  0  0  0  0  0  0
    0.6601    0.9678    0.2465 C   0  0  0  0  0  0  0  0  0  0  0  0
    0.9202    0.0111   -0.9339 C   0  0  0  0  0  0  0  0  0  0  0  0
   -0.0597   -1.0322   -1.0783 O   0  0  0  0  0  0  0  0  0  0  0  0
    2.2790   -0.6492   -0.7262 C   0  0  0  0  0  0  0  0  0  0  0  0
    2.4873   -1.6919   -0.1218 O   0  0  0  0  0  0  0  0  0  0  0  0
    3.3014    0.0340   -1.2761 O   0  0  0  0  0  0  0  0  0  0  0  0
    1.2557    2.2497    0.0043 O   0  0  0  0  0  0  0  0  0  0  0  0
   -1.3504    2.0710   -0.4716 O   0  0  0  0  0  0  0  0  0  0  0  0
   -2.2302   -0.3803    1.7938 O   0  0  0  0  0  0  0  0  0  0  0  0
   -1.5507   -2.4732   -0.0726 O   0  0  0  0  0  0  0  0  0  0  0  0
   -0.0222   -1.5891    0.9349 H   0  0  0  0  0  0  0  0  0  0  0  0
   -2.4537   -0.0800   -0.2033 H   0  0  0  0  0  0  0  0  0  0  0  0
   -0.9534    1.6888    1.4834 H   0  0  0  0  0  0  0  0  0  0  0  0
    1.1301    0.5706    1.1551 H   0  0  0  0  0  0  0  0  0  0  0  0
    0.9503    0.5474   -1.8891 H   0  0  0  0  0  0  0  0  0  0  0  0
    4.1001   -0.4889   -1.0559 H   0  0  0  0  0  0  0  0  0  0  0  0
    0.5859    2.7528   -0.5063 H   0  0  0  0  0  0  0  0  0  0  0  0
   -2.2767    2.2572   -0.2257 H   0  0  0  0  0  0  0  0  0  0  0  0
   -2.6562   -1.2587    1.7244 H   0  0  0  0  0  0  0  0  0  0  0  0
   -0.9289   -3.1830   -0.3122 H   0  0  0  0  0  0  0  0  0  0  0  0
  1  2  1  0
  2  3  1  0
  3  4  1  0
  4  5  1  0
  5  6  1  0
  5  7  1  0
  7  8  2  0
  7  9  1  0
  4 10  1  0
  3 11  1  0
  2 12  1  0
  1 13  1  0
  6  1  1  0
  1 14  1  0
  2 15  1  0
  3 16  1  0
  4 17  1  0
  5 18  1  0
  9 19  1  0
 10 20  1  0
 11 21  1  0
 12 22  1  0
 13 23  1  0
M  END
$$$$
