
     RDKit          3D

 45 46  0  0  0  0  0  0  0  0999 V2000
   -2.1954    1.4709   -1.1455 C   0  0  0  0  0  0  0  0  0  0  0  0
   -2.6261   -0.0037   -1.2758 C   0  0  0  0  0  0  0  0  0  0  0  0
   -3.9166   -0.3126   -0.4815 C   0  0  0  0  0  0  0  0  0  0  0  0
   -3.6532   -1.0703    0.8252 C   0  0  0  0  0  0  0  0  0  0  0  0
   -2.3118   -0.6828    1.4235 C   0  0  0  0  0  0  0  0  0  0  0  0
   -1.1723   -0.9848    0.4174 C   0  0  0  0  0  0  0  0  0  0  0  0
   -1.5583   -0.9104   -0.9636 O   0  0  0  0  0  0  0  0  0  0  0  0
   -0.0927   -0.0878    0.6763 O   0  0  0  0  0  0  0  0  0  0  0  0
    1.1869   -0.5959    0.2848 C   0  0  1  0  0  0  0  0  0  0  0  0
    1.4696   -0.2679   -1.2077 C   0  0  0  0  0  0  0  0  0  0  0  0
    2.9723   -0.2050   -1.4667 C   0  0  0  0  0  0  0  0  0  0  0  0
    3.6720    0.7933   -0.5215 C   0  0  0  0  0  0  0  0  0  0  0  0
    2.7836    1.1291    0.6981 C   0  0  0  0  0  0  0  0  0  0  0  0
    2.1682   -0.0665    1.1862 O   0  0  0  0  0  0  0  0  0  0  0  0
    3.5610    1.7920    1.8362 C   0  0  0  0  0  0  0  0  0  0  0  0
    4.0093    3.0876    1.4471 O   0  0  0  0  0  0  0  0  0  0  0  0
    4.9382    0.2370   -0.1320 O   0  0  0  0  0  0  0  0  0  0  0  0
    3.5368   -1.5255   -1.2973 O   0  0  0  0  0  0  0  0  0  0  0  0
    0.8990   -1.2579   -2.0828 O   0  0  0  0  0  0  0  0  0  0  0  0
   -2.1197   -1.4149    2.6457 O   0  0  0  0  0  0  0  0  0  0  0  0
   -3.6551   -2.4943    0.6014 O   0  0  0  0  0  0  0  0  0  0  0  0
   -4.8111   -1.1356   -1.2573 O   0  0  0  0  0  0  0  0  0  0  0  0
   -1.1386    1.7801   -2.0519 O   0  0  0  0  0  0  0  0  0  0  0  0
   -3.0311    2.1391   -1.3778 H   0  0  0  0  0  0  0  0  0  0  0  0
   -1.8400    1.7121   -0.1416 H   0  0  0  0  0  0  0  0  0  0  0  0
   -2.8253   -0.1784   -2.3404 H   0  0  0  0  0  0  0  0  0  0  0  0
   -4.4544    0.6180   -0.2670 H   0  0  0  0  0  0  0  0  0  0  0  0
   -4.4663   -0.8885    1.5369 H   0  0  0  0  0  0  0  0  0  0  0  0
   -2.3106    0.3777    1.6978 H   0  0  0  0  0  0  0  0  0  0  0  0
   -0.8351   -2.0138    0.5926 H   0  0  0  0  0  0  0  0  0  0  0  0
    1.2122   -1.6810    0.4386 H   0  0  0  0  0  0  0  0  0  0  0  0
    1.0246    0.6945   -1.4755 H   0  0  0  0  0  0  0  0  0  0  0  0
    3.1722    0.0670   -2.5094 H   0  0  0  0  0  0  0  0  0  0  0  0
    3.8833    1.7266   -1.0559 H   0  0  0  0  0  0  0  0  0  0  0  0
    1.9942    1.8264    0.3844 H   0  0  0  0  0  0  0  0  0  0  0  0
    2.9165    1.9039    2.7151 H   0  0  0  0  0  0  0  0  0  0  0  0
    4.4186    1.1854    2.1467 H   0  0  0  0  0  0  0  0  0  0  0  0
    4.6587    3.3646    2.1165 H   0  0  0  0  0  0  0  0  0  0  0  0
    4.8375   -0.7310   -0.2662 H   0  0  0  0  0  0  0  0  0  0  0  0
    2.9659   -2.1076   -1.8409 H   0  0  0  0  0  0  0  0  0  0  0  0
   -0.0688   -1.2214   -1.9222 H   0  0  0  0  0  0  0  0  0  0  0  0
   -2.4072   -2.3306    2.4509 H   0  0  0  0  0  0  0  0  0  0  0  0
   -4.3058   -2.6270   -0.1224 H   0  0  0  0  0  0  0  0  0  0  0  0
   -5.0716   -0.6366   -2.0525 H   0  0  0  0  0  0  0  0  0  0  0  0
   -1.4135    1.5266   -2.9498 H   0  0  0  0  0  0  0  0  0  0  0  0
  1  2  1  0
  2  3  1  0
  3  4  1  0
  4  5  1  0
  5  6  1  0
  6  7  1  0
  6  8  1  0
  8  9  1  0
  9 10  1  0
 10 11  1  0
 11 12  1  0
 12 13  1  0
 13 14  1  0
 13 15  1  0
 15 16  1  0
 12 17  1  0
 11 18  1  0
 10 19  1  0
  5 20  1  0
  4 21  1  0
  3 22  1  0
  1 23  1  0
  7  2  1  0
 14  9  1  0
  1 24  1  0
  1 25  1  0
  2 26  1  0
  3 27  1  0
  4 28  1  0
  5 29  1  0
  6 30  1  0
  9 31  1  6
 10 32  1  0
 11 33  1  0
 12 34  1  0
 13 35  1  0
 15 36  1  0
 15 37  1  0
 16 38  1  0
 17 39  1  0
 18 40  1  0
 19 41  1  0
 20 42  1  0
 21 43  1  0
 22 44  1  0
 23 45  1  0
M  END
$$$$
